data_hcp_final_JL\(3)
_audit_creation_date              2017-12-18
_audit_creation_method            'Materials Studio'
_symmetry_space_group_name_H-M    'P63/MMC'
_symmetry_Int_Tables_number       194
_symmetry_cell_setting            hexagonal
loop_
_symmetry_equiv_pos_as_xyz
  x,y,z
  -y,x-y,z
  -x+y,-x,z
  -x,-y,z+1/2
  y,-x+y,z+1/2
  x-y,x,z+1/2
  y,x,-z
  x-y,-y,-z
  -x,-x+y,-z
  -y,-x,-z+1/2
  -x+y,y,-z+1/2
  x,x-y,-z+1/2
  -x,-y,-z
  y,-x+y,-z
  x-y,x,-z
  x,y,-z+1/2
  -y,x-y,-z+1/2
  -x+y,-x,-z+1/2
  -y,-x,z
  -x+y,y,z
  x,x-y,z
  y,x,z+1/2
  x-y,-y,z+1/2
  -x,-x+y,z+1/2
_cell_length_a                    19.1335
_cell_length_b                    19.1335
_cell_length_c                    43.8779
_cell_angle_alpha                 90.0000
_cell_angle_beta                  90.0000
_cell_angle_gamma                 120.0000
loop_
_atom_site_label
_atom_site_type_symbol
_atom_site_fract_x
_atom_site_fract_y
_atom_site_fract_z
_atom_site_U_iso_or_equiv
_atom_site_adp_type
_atom_site_occupancy
H04    H     0.03208   0.41803   0.20952   0.00000  Uiso   1.00
H05    H     0.74328   0.16035   0.79118   0.00000  Uiso   1.00
H06    H     0.74724   0.82164   0.36838   0.00000  Uiso   1.00
H07    H     0.25505   0.94616   0.63287   0.00000  Uiso   1.00
C01    C     0.90284   0.56696   0.32713   0.00000  Uiso   1.00
C03    C     0.35535   0.33644   0.32866   0.00000  Uiso   1.00
C07    C     0.79379   0.12861   0.82977   0.00000  Uiso   1.00
C09    C     0.66016   0.04218   0.80745   0.00000  Uiso   1.00
C10    C     0.88567   0.26668   0.69191   0.00000  Uiso   1.00
C11    C     0.70366   0.70966   0.64941   0.00000  Uiso   1.00
C12    C     0.77700   0.06656   0.85107   0.00000  Uiso   1.00
O01    O     0.65785   0.46162   0.39519   0.00000  Uiso   1.00
O02    O     0.84931   0.29266   0.15302   0.00000  Uiso   1.00
O03    O     0.89422   0.37648   0.30574   0.00000  Uiso   1.00
H03    H     0.33333   0.66667   0.59864   0.00000  Uiso   1.00
O04    O     0.33333   0.66667   0.71767   0.00000  Uiso   1.00
H08    H     0.16433   0.69191   0.75000   0.00000  Uiso   1.00
H09    H     0.23499   0.46998   0.70268   0.00000  Uiso   1.00
C02    C     0.58765   0.41235   0.09419   0.00000  Uiso   1.00
O05    O     0.61519   0.38481   0.16282   0.00000  Uiso   1.00
O07    O     0.26335   0.73665   0.80319   0.00000  Uiso   1.00
Hf01   Hf    0.20773   0.60386   0.79073   0.00000  Uiso   1.00
Hf02   Hf    0.45532   0.72766   0.85628   0.00000  Uiso   1.00
O06    O     0.66667   0.33333   0.12086   0.00000  Uiso   1.00
O08    O     0.52977   0.18248   0.25000   0.00000  Uiso   1.00
loop_
_geom_bond_atom_site_label_1
_geom_bond_atom_site_label_2
_geom_bond_distance
_geom_bond_site_symmetry_2
_ccdc_geom_bond_type
H04    C09     1.095   14_566 D
H05    C10     1.093   10_666 S
H06    C12     1.096   6_554 S
H07    C11     1.097   2_665 S
C01    O02     1.282   12    S
C01    O03     1.280   21    S
C01    C03     1.493   3_665 S
C03    C01     1.493   2_655 S
C03    C11     1.408   13_666 S
C03    C09     1.405   24_664 S
C07    C12     1.416   .     D
C07    C07     1.485   19_665 S
C07    C10     1.415   10_666 S
C09    H04     1.095   15_656 D
C09    C03     1.405   24_655 S
C09    C10     1.391   10_666 S
C10    H05     1.093   10_666 S
C10    C07     1.415   10_666 S
C10    C09     1.391   10_666 S
C11    H07     1.097   3_565 S
C11    C03     1.408   13_666 S
C11    C12     1.396   12_556 S
C12    H06     1.096   5     S
C12    C11     1.396   12_556 S
O01    C02     1.282   10_665 S
O01    Hf02    2.208   6_654 S
O02    C01     1.282   12    S
O02    Hf02    2.198   8_666 S
O03    C01     1.280   21    S
O03    Hf01    2.261   4_664 S
H03    O06     0.975   4_665 S
O04    Hf01    2.114   12_566 S
O04    Hf01    2.114   11_556 S
O04    Hf01    2.114   10_666 S
H08    O08     0.971   5_565 S
H09    O07     0.975   12_566 S
C02    O01     1.282   10_665 S
C02    O01     1.282   16    S
O05    Hf01    2.072   8_666 S
O05    Hf02    2.062   7_556 S
O05    Hf02    2.062   9_656 S
O07    Hf01    2.277   .     S
O07    Hf01    2.277   3_565 S
O07    H09     0.975   12_566 S
O07    Hf02    2.348   2_665 S
Hf01   O07     2.277   2_665 S
Hf01   O03     2.261   4_665 S
Hf01   O03     2.261   24_665 S
Hf01   O04     2.114   10_666 S
Hf01   O05     2.072   8_566 S
Hf01   O08     2.180   7_556 S
Hf01   O08     2.180   5_565 S
Hf02   O01     2.208   5_565 S
Hf02   O01     2.208   22    S
Hf02   O02     2.198   8_566 S
Hf02   O02     2.198   15_556 S
Hf02   O05     2.062   7_556 S
Hf02   O05     2.062   9_666 S
Hf02   O07     2.348   3_565 S
Hf02   O06     2.257   7_556 S
O06    H03     0.975   4_664 S
O06    Hf02    2.257   7_556 S
O06    Hf02    2.257   9_656 S
O06    Hf02    2.257   8_666 S
O08    H08     0.971   6_654 S
O08    Hf01    2.180   7_556 S
O08    Hf01    2.180   6_654 S
